LTspice 24.1.10 for Windows
Circuit: C:\Users\johan\OneDrive\Documents\Github\Projet_1DA\Simulation LT spice\Luminosité\Luminosité.net
Start Time: Sun Apr 19 17:24:55 2026
solver = Normal
Maximum thread count: 8
tnom = 27
temp = 27
method = trap
Direct Newton iteration failed to find .op point.  (Use ".option noopiter" to skip.)
Starting Gmin stepping
Gmin = 10
Gmin = 1.07374
Gmin = 0.115292
Gmin = 0.0123794
Gmin = 0.00132923
Gmin = 0.000142725
Gmin = 1.5325e-05
Gmin = 1.6455e-06
Gmin = 1.76685e-07
Gmin = 1.89714e-08
vernier = 0.5
Gmin = 3.53652e-09
vernier = 0.25
vernier = 0.125
vernier = 0.0625
vernier = 0.03125
Gmin = 2.79429e-09
vernier = 0.015625
vernier = 0.0078125
Gmin = 2.74037e-09
vernier = 0.00390625
vernier = 0.00520833
vernier = 0.00260417
Gmin = 2.72702e-09
vernier = 0.00130208
vernier = 0.000651042
vernier = 0.000488281
Gmin = 0
Gmin = 0
Gmin stepping failed

Starting source stepping with srcstepmethod=0
Source Step = 3.0303%
Source Step = 33.3333%
Source Step = 47.9167%
Source Step = 48.0084%
Source Step = 48.038%
Source Step = 48.0676%
Source Step = 48.0972%
Source Step = 48.1268%
Source Step = 48.1564%
Source Step = 48.186%
vernier = 0.00146484
Source Step = 48.2244%
Source Step = 48.2688%
Source Step = 48.3132%
Source Step = 48.3576%
Source Step = 48.402%
vernier = 0.00219727
Source Step = 48.4575%
Source Step = 48.5241%
Source Step = 48.5906%
Source Step = 48.6572%
Source Step = 48.7238%
vernier = 0.0032959
Source Step = 48.8037%
Source Step = 48.9036%
Source Step = 49.0035%
Source Step = 49.1033%
Source Step = 49.2032%
vernier = 0.00494385
Source Step = 49.3181%
Source Step = 49.4679%
Source Step = 49.6177%
Source Step = 49.7675%
Source Step = 49.9173%
vernier = 0.00741577
Source Step = 50.0821%
Source Step = 50.3068%
Source Step = 50.5316%
Source Step = 50.7563%
Source Step = 50.981%
vernier = 0.0111237
Source Step = 51.217%
Source Step = 51.554%
Source Step = 51.8911%
Source Step = 52.2282%
Source Step = 52.5653%
Source Step = 52.9024%
vernier = 0.0166855
Source Step = 53.2057%
Source Step = 53.2342%
Source Step = 53.2658%
Source Step = 53.2974%
Source Step = 53.329%
Source Step = 53.3606%
vernier = 0.00156426
Source Step = 53.3985%
Source Step = 53.4459%
Source Step = 53.4933%
Source Step = 53.5407%
Source Step = 53.5881%
vernier = 0.0023464
Source Step = 53.6426%
Source Step = 53.7137%
Source Step = 53.7848%
Source Step = 53.8559%
Source Step = 53.927%
vernier = 0.00351959
Source Step = 54.0052%
Source Step = 54.1119%
Source Step = 54.2186%
Source Step = 54.3252%
Source Step = 54.4319%
vernier = 0.00527939
Source Step = 54.5439%
Source Step = 54.7038%
Source Step = 54.8638%
Source Step = 55.0238%
Source Step = 55.1838%
Source Step = 55.3438%
vernier = 0.00791909
Source Step = 55.5837%
Source Step = 55.8237%
Source Step = 56.0637%
Source Step = 56.3036%
Source Step = 56.5436%
vernier = 0.0118786
Source Step = 56.8916%
Source Step = 57.2515%
Source Step = 57.6115%
Source Step = 57.9715%
Source Step = 58.3314%
vernier = 0.00296966
Source Step = 58.3854%
Source Step = 58.4754%
Source Step = 58.5654%
Source Step = 58.6554%
Source Step = 58.7454%
vernier = 0.00445449
Source Step = 58.8579%
Source Step = 58.9928%
Source Step = 59.1278%
Source Step = 59.2628%
Source Step = 59.3978%
vernier = 0.00668173
Source Step = 59.5598%
Source Step = 59.7622%
Source Step = 59.9647%
Source Step = 60.1672%
Source Step = 60.3697%
vernier = 0.0100226
Source Step = 60.6025%
Source Step = 60.9062%
Source Step = 61.21%
Source Step = 61.5137%
Source Step = 61.8174%
vernier = 0.0150339
Source Step = 62.1515%
Source Step = 62.607%
Source Step = 63.0626%
Source Step = 63.3018%
Source Step = 63.3958%
Source Step = 63.4242%
Source Step = 63.4527%
Source Step = 63.4812%
Source Step = 63.5096%
Source Step = 63.5381%
vernier = 0.00140943
Source Step = 63.5766%
Source Step = 63.6193%
Source Step = 63.662%
Source Step = 63.7047%
Source Step = 63.7474%
vernier = 0.00211414
Source Step = 63.8029%
Source Step = 63.867%
Source Step = 63.9311%
Source Step = 63.9951%
Source Step = 64.0592%
vernier = 0.00317121
Source Step = 64.1393%
Source Step = 64.2354%
Source Step = 64.3315%
Source Step = 64.4276%
Source Step = 64.5237%
vernier = 0.00475682
Source Step = 64.639%
Source Step = 64.7831%
Source Step = 64.9273%
Source Step = 65.0714%
Source Step = 65.2156%
vernier = 0.00713523
Source Step = 65.3813%
Source Step = 65.5975%
Source Step = 65.8138%
Source Step = 66.03%
Source Step = 66.2462%
vernier = 0.0107028
Source Step = 66.484%
Source Step = 66.8084%
Source Step = 67.1327%
Source Step = 67.457%
Source Step = 67.7814%
vernier = 0.0160543
Source Step = 68.1219%
Source Step = 68.6084%
Source Step = 69.0949%
Source Step = 69.5814%
Source Step = 70.0679%
Source Step = 70.5544%
vernier = 0.0240814
Source Step = 71.2841%
Source Step = 72.0138%
vernier = 0.00602035
Source Step = 72.0093%
Source Step = 72.0549%
Source Step = 72.1005%
Source Step = 72.1461%
Source Step = 72.1917%
vernier = 0.00225763
Source Step = 72.2396%
Source Step = 72.308%
Source Step = 72.3764%
Source Step = 72.4448%
Source Step = 72.5133%
Source Step = 72.5817%
vernier = 0.00338645
Source Step = 72.6843%
Source Step = 72.7869%
Source Step = 72.8895%
Source Step = 72.9921%
Source Step = 73.0948%
vernier = 0.00507967
Source Step = 73.2436%
Source Step = 73.3975%
Source Step = 73.5514%
Source Step = 73.7054%
Source Step = 73.8593%
vernier = 0.0076195
Source Step = 74.0748%
Source Step = 74.3057%
Source Step = 74.5366%
Source Step = 74.7675%
Source Step = 74.9984%
vernier = 0.0114293
Source Step = 75.3101%
Source Step = 75.6564%
Source Step = 76.0027%
Source Step = 76.3491%
Source Step = 76.6954%
vernier = 0.0171439
Source Step = 77.1457%
Source Step = 77.6652%
Source Step = 78.1847%
Source Step = 78.7042%
Source Step = 79.2237%
vernier = 0.0257158
Source Step = 79.8731%
Source Step = 80.4576%
Source Step = 80.6524%
Source Step = 80.8472%
Source Step = 81.042%
Source Step = 81.2368%
Source Step = 81.2807%
Source Step = 81.3294%
Source Step = 81.3781%
Source Step = 81.4268%
Source Step = 81.4755%
Source Step = 81.5242%
Source Step = 81.5729%
vernier = 0.00241086
Source Step = 81.6411%
Source Step = 81.7141%
Source Step = 81.7872%
Source Step = 81.8602%
Source Step = 81.9333%
vernier = 0.00361629
Source Step = 82.0319%
Source Step = 82.1415%
Source Step = 82.2511%
Source Step = 82.3607%
Source Step = 82.4703%
vernier = 0.00542443
Source Step = 82.6127%
Source Step = 82.7771%
Source Step = 82.9415%
Source Step = 83.1059%
Source Step = 83.2702%
vernier = 0.00813665
Source Step = 83.4757%
Source Step = 83.7223%
Source Step = 83.9688%
Source Step = 84.2154%
Source Step = 84.462%
vernier = 0.012205
Source Step = 84.7578%
Source Step = 85.1277%
Source Step = 85.4975%
Source Step = 85.8674%
Source Step = 86.2372%
vernier = 0.0183075
Source Step = 86.6626%
Source Step = 87.2173%
Source Step = 87.7721%
Source Step = 88.3269%
Source Step = 88.8816%
vernier = 0.0274612
Source Step = 89.4919%
Source Step = 90.324%
Source Step = 90.5217%
Source Step = 90.5737%
Source Step = 90.6257%
Source Step = 90.6777%
Source Step = 90.7297%
Source Step = 90.7817%
Source Step = 90.8337%
Source Step = 90.8857%
Source Step = 90.9378%
Source Step = 90.9898%
Source Step = 91.0418%
Source Step = 91.0938%
Source Step = 91.1458%
Source Step = 91.1978%
Source Step = 91.2498%
Source Step = 91.3018%
Source Step = 91.3538%
Source Step = 91.4058%
Source Step = 91.4579%
Source Step = 91.5099%
Source Step = 91.5619%
Source Step = 91.6139%
Source Step = 91.6659%
Source Step = 91.7179%
Source Step = 91.7699%
Source Step = 91.8219%
Source Step = 91.8739%
Source Step = 91.9259%
Source Step = 91.978%
Source Step = 92.03%
Source Step = 92.082%
Source Step = 92.134%
Source Step = 92.186%
Source Step = 92.238%
Source Step = 92.29%
Source Step = 92.342%
Source Step = 92.394%
Source Step = 92.446%
Source Step = 92.4981%
Source Step = 92.5501%
Source Step = 92.6021%
Source Step = 92.6541%
Source Step = 92.7061%
Source Step = 92.7581%
Source Step = 92.8101%
Source Step = 92.8621%
Source Step = 92.9141%
Source Step = 92.9661%
Source Step = 93.0182%
Source Step = 93.0702%
Source Step = 93.1222%
Source Step = 93.1742%
Source Step = 93.2262%
Source Step = 93.2782%
Source Step = 93.3302%
Source Step = 93.3822%
Source Step = 93.4342%
Source Step = 93.4862%
Source Step = 93.5382%
Source Step = 93.5903%
Source Step = 93.6423%
Source Step = 93.6943%
Source Step = 93.7463%
Source Step = 93.7983%
Source Step = 93.8503%
Source Step = 93.9023%
Source Step = 93.9543%
Source Step = 94.0063%
Source Step = 94.0583%
Source Step = 94.1104%
Source Step = 94.1624%
Source Step = 94.2144%
Source Step = 94.2664%
Source Step = 94.3184%
Source Step = 94.3704%
Source Step = 94.4224%
Source Step = 94.4744%
Source Step = 94.5264%
Source Step = 94.5784%
Source Step = 94.6305%
Source Step = 94.6825%
Source Step = 94.7345%
Source Step = 94.7865%
Source Step = 94.8385%
Source Step = 94.8905%
Source Step = 94.9425%
Source Step = 94.9945%
Source Step = 95.0465%
Source Step = 95.0985%
Source Step = 95.1506%
Source Step = 95.2026%
Source Step = 95.2546%
Source Step = 95.3066%
Source Step = 95.3586%
Source Step = 95.4106%
Source Step = 95.4626%
Source Step = 95.5146%
Source Step = 95.5666%
Source Step = 95.6186%
Source Step = 95.6707%
Source Step = 95.7227%
Source Step = 95.7747%
Source Step = 95.8267%
Source Step = 95.8787%
Source Step = 95.9307%
Source Step = 95.9827%
Source Step = 96.0347%
Source Step = 96.0867%
Source Step = 96.1387%
Source Step = 96.1908%
Source Step = 96.2428%
Source Step = 96.2948%
Source Step = 96.3468%
Source Step = 96.3988%
Source Step = 96.4508%
Source Step = 96.5028%
Source Step = 96.5548%
Source Step = 96.6068%
Source Step = 96.6588%
Source Step = 96.7108%
Source Step = 96.7629%
Source Step = 96.8149%
Source Step = 96.8669%
Source Step = 96.9189%
Source Step = 96.9709%
Source Step = 97.0229%
Source Step = 97.0749%
Source Step = 97.1269%
Source Step = 97.1789%
Source Step = 97.2309%
Source Step = 97.283%
Source Step = 97.335%
Source Step = 97.387%
Source Step = 97.439%
Source Step = 97.491%
Source Step = 97.543%
Source Step = 97.595%
Source Step = 97.647%
Source Step = 97.699%
Source Step = 97.751%
Source Step = 97.8031%
Source Step = 97.8551%
Source Step = 97.9071%
Source Step = 97.9591%
Source Step = 98.0111%
Source Step = 98.0631%
Source Step = 98.1151%
Source Step = 98.1671%
Source Step = 98.2191%
Source Step = 98.2711%
Source Step = 98.3232%
Source Step = 98.3752%
Source Step = 98.4272%
Source Step = 98.4792%
Source Step = 98.5312%
Source Step = 98.5832%
Source Step = 98.6352%
Source Step = 98.6872%
Source Step = 98.7392%
Source Step = 98.7912%
Source Step = 98.8433%
Source Step = 98.8953%
Source Step = 98.9473%
Source Step = 98.9993%
Source Step = 99.0513%
Source Step = 99.1033%
Source Step = 99.1553%
Source Step = 99.2073%
Source Step = 99.2593%
Source Step = 99.3113%
Source Step = 99.3633%
Source Step = 99.4154%
Source Step = 99.4674%
Source Step = 99.5194%
Source Step = 99.5714%
Source Step = 99.6234%
Source Step = 99.6754%
Source Step = 99.7274%
Source Step = 99.7794%
Source Step = 99.8314%
Source Step = 99.8834%
Source Step = 99.9355%
Source Step = 99.9875%
Source Step = 100%
Starting source stepping with srcstepmethod=1
Source Step = 3.0303%
Source Step = 33.3333%
Source Step = 63.6364%
Source Step = 80.4924%
Source Step = 81.7708%
vernier = 0.00390625
Source stepping failed

Pseudo Transient failed in finding the operating point at 10.2731 µs.
Trouble finding operating point....skipping operating point for Transient analysis.
Changing Tseed to 1e-07
Changing Tseed to 1e-09
Changing Tseed to 1e-06
Changing Tseed to 1e-10
Changing Tseed to 1e-05
Changing Tseed to 1e-11
Changing Tseed to 0.0001
Changing Tseed to 1e-12
Changing Tseed to 0.001
Changing Tseed to 1e-13
Changing Tseed to 0.01
Changing Tseed to 1e-14

Convergence Failure:  Time step too small; initial timepoint: trouble with node "u3:61"

Simulation Failed: Iteration limit reached

Total elapsed time: 27.117 seconds.

Files loaded:
C:\Users\johan\OneDrive\Documents\Github\Projet_1DA\Simulation LT spice\Luminosité\Luminosité.net
C:\Users\johan\AppData\Local\LTspice\lib\sub\ADA4610.lib

