LTspice 24.1.10 for Windows
Circuit: C:\Users\johan\OneDrive\Documents\Github\Projet_1DA\LTspice\Temperature\Temperature.net
Start Time: Mon May  4 12:47:31 2026
solver = Normal
Maximum thread count: 8
tnom = 27
temp = 0
method = trap
Direct Newton iteration failed to find .op point.  (Use ".option noopiter" to skip.)
Starting Gmin stepping
Gmin = 10
Gmin = 1.07374
Gmin = 0.115292
Gmin = 0.0123794
Gmin = 0.00132923
Gmin = 0.000142725
Gmin = 1.5325e-05
Gmin = 1.6455e-06
Gmin = 1.76685e-07
Gmin = 1.89714e-08
Gmin = 2.03704e-09
Gmin = 2.18725e-10
Gmin = 2.34854e-11
Gmin = 2.52173e-12
Gmin = 2.70769e-13
Gmin = 0
Gmin stepping succeeded in finding the operating point.

.step temp=0°
.step temp=25°
.step temp=50°
.step temp=75°
.step temp=100°
Total elapsed time: 4.709 seconds.

Files loaded:
C:\Users\johan\OneDrive\Documents\Github\Projet_1DA\LTspice\Temperature\Temperature.net
C:\Users\johan\AppData\Local\LTspice\lib\cmp\standard.dio
C:\Users\johan\AppData\Local\LTspice\lib\cmp\standard.bjt
C:\Users\johan\AppData\Local\LTspice\lib\sub\UniversalOpAmp2.lib

